<additional>
  <vType id="ue" vClass="passenger"
         accel="2.6" decel="4.5" minGap="2.5"
         maxSpeed="60" speedDev="0.0"/>
</additional>
