<?xml version="1.0" encoding="UTF-8"?>

<!-- generated on 2025-11-15 08:38:05.792749 by Eclipse SUMO randomTrips.py UNKNOWN
<configuration>
    <net-file value="urban-scenario.net.xml"/>
    <output-trip-file value="urban-scenario.trips.xml"/>
    <route-file value="urban-scenario.rou.xml"/>
    <end value="100.0"/>
    <period value="10.0"/>
</configuration>
-->

<routes xmlns:xsi="http://www.w3.org/2001/XMLSchema-instance" xsi:noNamespaceSchemaLocation="http://sumo.dlr.de/xsd/routes_file.xsd">
    <trip id="0" depart="0.00" from="C1C0" to="A0A1"/>
    <trip id="1" depart="10.00" from="B0C0" to="B0A0"/>
    <trip id="2" depart="20.00" from="C2C1" to="C1D1"/>
    <trip id="3" depart="30.00" from="D1D0" to="A1A0"/>
    <trip id="4" depart="40.00" from="B2A2" to="A0B0"/>
    <trip id="5" depart="50.00" from="B0A0" to="C0B0"/>
    <trip id="6" depart="60.00" from="A0A1" to="A2B2"/>
    <trip id="7" depart="70.00" from="C1C2" to="C0C1"/>
    <trip id="8" depart="80.00" from="B0A0" to="C1B1"/>
    <trip id="9" depart="90.00" from="D0C0" to="A0A1"/>
</routes>
