<?xml version="1.0" encoding="UTF-8"?>

<!-- generated on 2025-11-15 08:38:05.848389 by Eclipse SUMO randomTrips.py UNKNOWN
<configuration>
    <net-file value="urban-scenario.net.xml"/>
    <output-trip-file value="urban-scenario.trips.xml"/>
    <route-file value="urban-scenario.rou.xml"/>
    <end value="100.0"/>
    <period value="10.0"/>
</configuration>
-->

<!-- generated on 2025-11-15T08:38:05.844035+00:00 by Eclipse SUMO duarouter 1.25.0
<duarouterConfiguration xmlns:xsi="http://www.w3.org/2001/XMLSchema-instance" xsi:noNamespaceSchemaLocation="http://sumo.dlr.de/xsd/duarouterConfiguration.xsd">

    <input>
        <net-file value="urban-scenario.net.xml"/>
        <route-files value="urban-scenario.trips.xml"/>
    </input>

    <output>
        <output-file value="urban-scenario.rou.xml"/>
        <alternatives-output value="NUL"/>
    </output>

    <time>
        <begin value="0.0"/>
        <end value="100.0"/>
    </time>

    <report>
        <no-warnings value="true"/>
        <ignore-errors value="true"/>
        <no-step-log value="true"/>
    </report>

</duarouterConfiguration>
-->

<routes xmlns:xsi="http://www.w3.org/2001/XMLSchema-instance" xsi:noNamespaceSchemaLocation="http://sumo.dlr.de/xsd/routes_file.xsd">
    <vehicle id="0" depart="0.00">
        <route edges="C1C0 C0B0 B0A0 A0A1"/>
    </vehicle>
    <vehicle id="1" depart="10.00">
        <route edges="B0C0 C0B0 B0A0"/>
    </vehicle>
    <vehicle id="2" depart="20.00">
        <route edges="C2C1 C1D1"/>
    </vehicle>
    <vehicle id="3" depart="30.00">
        <route edges="D1D0 D0C0 C0B0 B0B1 B1A1 A1A0"/>
    </vehicle>
    <vehicle id="4" depart="40.00">
        <route edges="B2A2 A2A1 A1A0 A0B0"/>
    </vehicle>
    <vehicle id="5" depart="50.00">
        <route edges="B0A0 A0A1 A1B1 B1C1 C1C0 C0B0"/>
    </vehicle>
    <vehicle id="6" depart="60.00">
        <route edges="A0A1 A1A2 A2B2"/>
    </vehicle>
    <vehicle id="7" depart="70.00">
        <route edges="C1C2 C2C1 C1C0 C0C1"/>
    </vehicle>
    <vehicle id="8" depart="80.00">
        <route edges="B0A0 A0A1 A1B1 B1C1 C1B1"/>
    </vehicle>
    <vehicle id="9" depart="90.00">
        <route edges="D0C0 C0B0 B0A0 A0A1"/>
    </vehicle>
</routes>
