<?xml version="1.0" encoding="UTF-8"?>
<configuration>
    <input>
        <net-file value="urban-scenario.net.xml"/>
        <route-files value="urban-scenario.rou.xml"/>
    </input>
    
    <output>
        <fcd-output value="sumo-fcd-trace.xml"/>
        <fcd-output.geo value="true"/>
    </output>
    
    <time>
        <begin value="0"/>
        <end value="100"/>
        <step-length value="0.1"/>
    </time>
</configuration>
