<?xml version="1.0" encoding="UTF-8"?>

<!-- generated on 2025-11-16 02:23:00.779387 by Eclipse SUMO randomTrips.py UNKNOWN
<configuration>
    <net-file value="urban-scenario.net.xml"/>
    <output-trip-file value="urban-scenario.trips.xml"/>
    <route-file value="urban-scenario.rou.xml"/>
    <trip-attributes value="departLane=&quot;best&quot; departSpeed=&quot;random&quot; type=&quot;ue&quot;"/>
    <fringe-factor value="0.2"/>
    <min-distance value="10000.0"/>
    <intermediate value="100"/>
    <end value="250000.0"/>
    <period value="25000.0"/>
</configuration>
-->

<routes xmlns:xsi="http://www.w3.org/2001/XMLSchema-instance" xsi:noNamespaceSchemaLocation="http://sumo.dlr.de/xsd/routes_file.xsd">
    <trip id="0" depart="0.00" from="C1C0" to="C2B2" via="A0A1 B0C0 B0A0 C2C1 C1D1 D1D0 A1A0 B2A2 A0B0 B0A0 C0B0 A0A1 A2B2 C1C2 C0C1 B0A0 C1B1 D0C0 A0A1 D0C0 C1D1 B1B0 A2A1 D2C2 B1B0 A1A2 A1A2 D0D1 C1B1 D0C0 C2B2 C0C1 D2D1 B1B2 C0C1 D0D1 C1C0 D1C1 C0D0 C1D1 A0B0 B0A0 B0C0 A1A0 B0A0 A1A2 B0C0 C1C0 B1B2 B1B2 B0A0 B0C0 D1D2 C1C2 C1B1 A2A1 C2B2 A2A1 B1B2 D2D1 C1C0 C0C1 C1D1 D0D1 C2D2 B0A0 A0B0 B1A1 B0C0 B0A0 D2C2 D1C1 B1A1 C1C2 B1C1 D1D2 B2B1 B0C0 B0B1 C0D0 B0B1 C0D0 D1D0 B1C1 B0A0 D2D1 C0B0 A1A2 A0B0 A1A2 C1C0 C2D2 B2A2 A1A0 B1B2 D2D1 C0B0 D2D1 D1C1 A0A1"  departLane="best" departSpeed="random" type="ue"/>
    <trip id="1" depart="25000.00" from="C1D1" to="A2A1" via="C0C1 B0C0 C1C0 A1A2 B2A2 B2B1 D2C2 D1C1 B0B1 C0B0 A2B2 D1D2 D1C1 B1A1 C1C0 C1B1 A2A1 C2C1 C0C1 C2D2 C0C1 A0A1 B1B0 A0A1 D1D2 D1C1 D0D1 B1A1 A0B0 D1C1 D2C2 A1A0 B2C2 A1A0 C2C1 C2D2 A1B1 B2C2 C0C1 B0C0 D1C1 B2A2 B0A0 C0C1 C2B2 A2B2 B1A1 D2D1 C1C2 B2A2 C0B0 A1B1 B0A0 B1B0 C1B1 B0A0 B0A0 A1A0 C1C0 B0A0 D1D0 D1C1 A1A0 B0B1 C1C2 B0A0 A1B1 D1D2 C0D0 B2C2 C2D2 D0C0 A2B2 A1A2 B2A2 B2A2 B2B1 C2B2 C1C2 D2D1 A1A2 B1C1 B1B0 D1C1 B0B1 A2B2 B2B1 B2A2 B0C0 B0B1 D1D2 B2B1 D1C1 C0C1 A0B0 D2D1 D0D1 D2C2 D1D2 D0D1"  departLane="best" departSpeed="random" type="ue"/>
    <trip id="2" depart="50000.00" from="B2C2" to="A1B1" via="B0A0 B1C1 A0B0 B1B2 D2D1 B0C0 C2D2 B2B1 B2A2 D2C2 D2D1 C0C1 C2B2 A2A1 B1A1 D2C2 C0D0 C0C1 C2C1 A0B0 C0D0 C0B0 D0D1 A2A1 D2C2 A1A0 A2B2 C1B1 C1C2 B0A0 A1B1 D1D0 B0B1 C1B1 C1C0 B2A2 C0D0 C0B0 D1D2 A2B2 C2B2 B0B1 B1C1 C1C2 B1A1 B1A1 C2C1 A1A0 B2B1 D2D1 D2D1 A1A0 B0A0 B0C0 D1D2 D1C1 D1C1 B1B2 A2A1 D0D1 C1D1 C1B1 D2D1 C1C2 A0A1 D0C0 B1A1 C1C2 D1D2 A1B1 A1A2 A1A2 C0C1 B0C0 C1B1 C2B2 A2B2 C1C0 B0B1 B2C2 D1D0 D0D1 A1A2 B2A2 B0C0 A0A1 C2D2 C1C0 B0B1 C2C1 C0C1 B2A2 A0A1 A1A0 D1D0 D1D0 C0C1 D0D1 C0D0 A2A1"  departLane="best" departSpeed="random" type="ue"/>
    <trip id="3" depart="75000.00" from="B1A1" to="C0B0" via="D1D0 D0C0 D1C1 D1D0 B0A0 B0B1 A1A2 C2D2 D1D0 B1C1 C1C0 A2A1 D1D2 D1C1 D2D1 D0C0 D1C1 A0A1 C2C1 B1B0 D1D2 D0C0 D1C1 D0C0 B0C0 C2D2 A1A2 D1C1 D1C1 B0A0 D0C0 B2B1 B1A1 D0C0 B0A0 A0A1 A2B2 B1B0 D1C1 D2C2 B0C0 C1C0 B1C1 D2D1 C0C1 D1D2 A1A2 D2C2 A2B2 D2C2 B0C0 A1A2 B2A2 C2B2 B1A1 C1B1 C0B0 B1C1 C0D0 B0B1 C2B2 A0A1 D1D2 C0C1 C2B2 C2C1 C1C2 B1B2 A1A0 C1C2 B1B0 B1A1 D0D1 C2B2 B1A1 B1A1 B1C1 B1C1 B1A1 A1B1 B2A2 D1D2 C1D1 D1D0 C1B1 B1A1 C0C1 A0A1 B0C0 B2A2 C0D0 C1C2 B2B1 B2B1 B0A0 B2C2 D1D0 D0C0 A2A1 A1A0"  departLane="best" departSpeed="random" type="ue"/>
    <trip id="4" depart="100000.00" from="C1C0" to="B1B2" via="B1B0 D0C0 C2C1 C1C2 B0A0 A2B2 A0A1 B0B1 B2C2 D0D1 A1A0 B2A2 C1C0 A2B2 C1D1 B2C2 B0B1 C1C2 A0A1 C2C1 C2D2 A1A2 B2A2 A2A1 D2C2 C0B0 A0B0 B0B1 D0D1 B2B1 D0C0 C1C2 D2D1 C1B1 D2C2 D1D0 C1B1 C2B2 C0B0 D0D1 C0C1 D1D0 C2C1 B2C2 B0B1 B0B1 C1C0 C2D2 C0B0 C1C0 B0C0 A1A0 B0C0 B0C0 B1A1 C0C1 A1B1 B0A0 C1D1 C2B2 A1A0 B1C1 C0C1 B2A2 B0A0 B2A2 D1D0 C0D0 C1D1 D1C1 C2D2 B1B2 A0A1 B1B0 C2C1 D1C1 D2C2 B2A2 C2C1 C0C1 C1B1 B0A0 B0A0 B2A2 A0A1 B1B0 C1D1 B1C1 A2A1 B2B1 A1B1 C1C0 A0A1 B1C1 C0D0 A0A1 C1C0 A1B1 B2B1 A0B0"  departLane="best" departSpeed="random" type="ue"/>
    <trip id="5" depart="125000.00" from="B0A0" to="B1A1" via="B1B0 C2C1 B1B2 C2C1 D0D1 B0B1 A1A0 A0A1 C0C1 D2D1 B1B0 C1C2 C2D2 C1C2 C2C1 D2C2 A2B2 A0A1 A2A1 A1B1 C1C2 C0D0 B0A0 C1D1 C2D2 A2A1 C1B1 C2C1 A1A2 D0C0 D2C2 A1A2 A0A1 B1A1 C1D1 D2C2 B1C1 C2B2 A1A0 C1D1 C1C0 A1A2 C2D2 D0D1 C1B1 A1B1 D2D1 C2D2 B1B0 B2A2 B1B2 C0B0 B1B0 D0D1 D0C0 A1A2 D2C2 C1C0 D0D1 C2B2 B2A2 C2B2 D2C2 B0C0 D0C0 C0C1 B2C2 B2A2 C2B2 B0C0 D0D1 D0D1 A1A0 D1C1 B0B1 B2B1 C1B1 B1B2 A0A1 D0D1 A2B2 B0A0 D0C0 B1B0 D1C1 C1D1 B0C0 A0A1 D2C2 A1A0 C2B2 B2C2 C2C1 C1D1 C1C0 B2C2 C2D2 A1A2 B0A0 C1D1"  departLane="best" departSpeed="random" type="ue"/>
    <trip id="6" depart="150000.00" from="C0D0" to="C0B0" via="B2C2 C0C1 B2A2 C2C1 B1B0 C1D1 B0C0 B0B1 A1B1 A2B2 A1B1 C0C1 C2C1 A2B2 B0A0 B2C2 C2B2 D2D1 C0B0 B0C0 A1A2 A2B2 B0A0 A2B2 A0A1 C0C1 B0C0 D2D1 C0C1 C1D1 A1B1 D1C1 B2C2 D1C1 C0D0 B2B1 B2A2 A2B2 A0B0 D1D2 B2C2 D0C0 B1C1 A1A0 C1C0 A0B0 A2A1 C0D0 B1A1 D2D1 A1B1 C2C1 C1B1 C2D2 B0A0 C0B0 B2B1 B2B1 D1C1 D2D1 B1A1 C1C0 C1B1 C2C1 D2C2 B0A0 B0A0 C1C2 A2A1 A2A1 A1A0 A0A1 B2B1 C1B1 B0C0 B0A0 C2B2 C1D1 B2B1 C1D1 D1D2 C2D2 C1C0 C1C2 D1D2 B2A2 C0C1 C1C2 D1D0 D0D1 A1A0 A2A1 B1A1 C2C1 C0D0 B0C0 A1B1 C1D1 C1D1 D2C2"  departLane="best" departSpeed="random" type="ue"/>
    <trip id="7" depart="175000.00" from="B2C2" to="B0A0" via="A1A0 A0B0 B2A2 B1A1 B0B1 A1A2 D2C2 D0D1 C0D0 D2C2 D2D1 C1C2 B0C0 A0B0 C2C1 B2B1 C1C2 D1D2 A2B2 C0D0 C1C0 B2C2 A1A2 B1B0 B1B0 C1C2 D1C1 B1B0 C1D1 B0C0 D2C2 D0C0 C0C1 B2B1 B1A1 B1A1 D2C2 B1C1 C0B0 D2D1 C1C2 C0C1 B2A2 A2B2 B1B2 C2C1 C1C0 C2C1 A2B2 C0C1 D1D2 B2A2 C1D1 A1B1 D2D1 C1B1 B0B1 A2A1 C0C1 C0C1 A1A2 D2D1 D1D2 B2B1 A1A2 D0D1 B2C2 C2B2 C0B0 B0C0 D0D1 D2D1 B0B1 C0C1 B1C1 D1D2 C0B0 D1C1 D1C1 B0C0 C2D2 B2A2 D1D2 C0B0 D0C0 B0C0 B1A1 C0D0 D2D1 B2C2 A2A1 C0C1 B1B0 C0C1 C0C1 B2B1 B1A1 A2B2 C1D1 C0D0"  departLane="best" departSpeed="random" type="ue"/>
    <trip id="8" depart="200000.00" from="C2D2" to="C1C0" via="A0B0 C2C1 C1D1 D0C0 B1C1 C1C2 D0C0 D2D1 B2C2 A0B0 C0B0 C1B1 D1C1 D1C1 B2A2 C0B0 B2B1 C2B2 B1C1 C1C2 A2A1 B2B1 D2C2 B1B0 C1D1 C1C2 D0D1 D0D1 D1C1 B1B2 B1A1 C2B2 C2C1 D1C1 A0B0 A1A0 C1C0 D1D2 D2D1 C2C1 B2A2 A1A2 C1C0 D1C1 B2B1 C1D1 D1D0 A0B0 D0C0 B0C0 B1B2 A1B1 C0C1 C0D0 C2D2 A2A1 A1A0 D1C1 C1C0 B0B1 D1D2 A1B1 B2B1 B0B1 B0B1 A0A1 D0C0 D1D0 C1D1 A2A1 B2B1 B1B0 C0D0 C1C0 B2A2 B0B1 D0D1 A2B2 B1C1 B2C2 B0B1 C0D0 C0D0 D2D1 B1A1 D2D1 C1C2 B0C0 C0D0 C1D1 C2C1 A0B0 C1B1 B2C2 D1D0 B0C0 D0C0 C1B1 B1B0 C1C0"  departLane="best" departSpeed="random" type="ue"/>
    <trip id="9" depart="225000.00" from="C1D1" to="C2D2" via="C2B2 C1C2 D0D1 C1C0 D1D0 C1C0 B1A1 B2A2 C0D0 C2B2 A1A2 B1A1 C2C1 A2A1 A1B1 C0C1 D2D1 C0C1 D1D2 D0D1 B0B1 D0D1 B2C2 D0C0 C2C1 B1B0 A1A2 D2C2 A1B1 D2C2 D1C1 C2B2 D2D1 D2C2 D0C0 B1B2 C2D2 A0A1 C0C1 B2B1 C1C2 C1C2 C0D0 D0C0 D1D2 A1A2 B0A0 A0A1 D1D0 C0D0 D1D2 B0A0 A1A0 D0D1 D1D0 B1A1 B1C1 A1B1 D2C2 B1A1 B2C2 A1A2 D1D0 A1B1 B2B1 C1C2 C2C1 D2C2 B2A2 C2C1 A2A1 B2A2 A1A2 B2C2 B1C1 D2C2 A0B0 B1B2 B2B1 D2C2 D1C1 A1A2 C1D1 C0C1 D2D1 B1B2 B1C1 A2B2 A1B1 D0D1 B2B1 C1C2 C1C0 C1B1 A0A1 C2D2 B0B1 A1B1 C0D0 A1A0"  departLane="best" departSpeed="random" type="ue"/>
</routes>
