<?xml version="1.0" encoding="UTF-8"?>

<!-- generated on 2025-11-16 02:23:00.841445 by Eclipse SUMO randomTrips.py UNKNOWN
<configuration>
    <net-file value="urban-scenario.net.xml"/>
    <output-trip-file value="urban-scenario.trips.xml"/>
    <route-file value="urban-scenario.rou.xml"/>
    <trip-attributes value="departLane=&quot;best&quot; departSpeed=&quot;random&quot; type=&quot;ue&quot;"/>
    <fringe-factor value="0.2"/>
    <min-distance value="10000.0"/>
    <intermediate value="100"/>
    <end value="250000.0"/>
    <period value="25000.0"/>
</configuration>
-->

<!-- generated on 2025-11-16T02:23:00.832274+00:00 by Eclipse SUMO duarouter 1.25.0
<duarouterConfiguration xmlns:xsi="http://www.w3.org/2001/XMLSchema-instance" xsi:noNamespaceSchemaLocation="http://sumo.dlr.de/xsd/duarouterConfiguration.xsd">

    <input>
        <net-file value="urban-scenario.net.xml"/>
        <route-files value="urban-scenario.trips.xml"/>
    </input>

    <output>
        <output-file value="urban-scenario.rou.xml"/>
        <alternatives-output value="NUL"/>
    </output>

    <time>
        <begin value="0.0"/>
        <end value="250000.0"/>
    </time>

    <report>
        <no-warnings value="true"/>
        <ignore-errors value="true"/>
        <no-step-log value="true"/>
    </report>

</duarouterConfiguration>
-->

<routes xmlns:xsi="http://www.w3.org/2001/XMLSchema-instance" xsi:noNamespaceSchemaLocation="http://sumo.dlr.de/xsd/routes_file.xsd">
    <vehicle id="0" type="ue" depart="0.00" departLane="best" departSpeed="random">
        <route edges="C1C0 C0B0 B0A0 A0A1 A1B1 B1B0 B0C0 C0B0 B0A0 A0A1 A1A2 A2B2 B2C2 C2C1 C1D1 D1D0 D0C0 C0B0 B0B1 B1A1 A1A0 A0B0 B0B1 B1B2 B2A2 A2A1 A1A0 A0B0 B0A0 A0A1 A1B1 B1C1 C1C0 C0B0 B0A0 A0A1 A1A2 A2B2 B2B1 B1C1 C1C2 C2C1 C1C0 C0C1 C1B1 B1B0 B0A0 A0A1 A1B1 B1C1 C1B1 B1C1 C1D1 D1D0 D0C0 C0B0 B0A0 A0A1 A1B1 B1C1 C1D1 D1D0 D0C0 C0C1 C1D1 D1C1 C1B1 B1B0 B0B1 B1B2 B2A2 A2A1 A1B1 B1C1 C1D1 D1D2 D2C2 C2B2 B2B1 B1B0 B0A0 A0A1 A1A2 A2B2 B2B1 B1B0 B0C0 C0D0 D0D1 D1C1 C1B1 B1C1 C1D1 D1D0 D0C0 C0C1 C1C2 C2B2 B2B1 B1B0 B0C0 C0C1 C1C2 C2D2 D2D1 D1C1 C1B1 B1B2 B2C2 C2C1 C1C0 C0C1 C1C0 C0D0 D0D1 D1C1 C1C0 C0D0 D0D1 D1C1 C1C0 C0D0 D0D1 D1C1 C1D1 D1C1 C1B1 B1A1 A1A0 A0B0 B0A0 A0A1 A1B1 B1B0 B0C0 C0C1 C1B1 B1A1 A1A0 A0B0 B0A0 A0A1 A1A2 A2B2 B2B1 B1B0 B0C0 C0C1 C1C0 C0B0 B0B1 B1B2 B2B1 B1B0 B0A0 A0A1 A1B1 B1B0 B0C0 C0D0 D0D1 D1D2 D2C2 C2C1 C1C2 C2C1 C1B1 B1B2 B2A2 A2A1 A1B1 B1C1 C1C2 C2B2 B2A2 A2A1 A1B1 B1B2 B2C2 C2D2 D2D1 D1C1 C1C0 C0C1 C1D1 D1C1 C1C0 C0D0 D0D1 D1C1 C1C2 C2D2 D2D1 D1D0 D0C0 C0B0 B0A0 A0A1 A1A0 A0B0 B0B1 B1A1 A1A0 A0B0 B0C0 C0B0 B0A0 A0A1 A1B1 B1C1 C1D1 D1D2 D2C2 C2D2 D2D1 D1C1 C1B1 B1A1 A1B1 B1C1 C1C2 C2B2 B2B1 B1C1 C1D1 D1D2 D2C2 C2B2 B2B1 B1B0 B0C0 C0B0 B0B1 B1C1 C1C0 C0D0 D0D1 D1C1 C1C0 C0B0 B0B1 B1C1 C1C0 C0D0 D0D1 D1D0 D0C0 C0B0 B0B1 B1C1 C1C0 C0B0 B0A0 A0A1 A1A2 A2B2 B2C2 C2D2 D2D1 D1D0 D0C0 C0B0 B0A0 A0A1 A1A2 A2B2 B2B1 B1A1 A1A0 A0B0 B0A0 A0A1 A1A2 A2B2 B2C2 C2C1 C1C0 C0C1 C1C2 C2D2 D2D1 D1C1 C1C2 C2B2 B2A2 A2A1 A1A0 A0B0 B0B1 B1B2 B2C2 C2D2 D2D1 D1D0 D0C0 C0B0 B0B1 B1B2 B2C2 C2D2 D2D1 D1C1 C1C0 C0B0 B0A0 A0A1 A1B1 B1C1 C1C2 C2B2"/>
    </vehicle>
    <vehicle id="1" type="ue" depart="25000.00" departLane="best" departSpeed="random">
        <route edges="C1D1 D1D0 D0C0 C0C1 C1B1 B1B0 B0C0 C0C1 C1C0 C0B0 B0A0 A0A1 A1A2 A2B2 B2A2 A2A1 A1A2 A2B2 B2B1 B1C1 C1D1 D1D2 D2C2 C2D2 D2D1 D1C1 C1C0 C0B0 B0B1 B1C1 C1C0 C0B0 B0A0 A0A1 A1A2 A2B2 B2C2 C2C1 C1D1 D1D2 D2C2 C2D2 D2D1 D1C1 C1B1 B1A1 A1B1 B1C1 C1C0 C0C1 C1B1 B1B2 B2A2 A2A1 A1B1 B1B2 B2C2 C2C1 C1C0 C0C1 C1C2 C2D2 D2D1 D1D0 D0C0 C0C1 C1B1 B1B0 B0A0 A0A1 A1B1 B1B0 B0A0 A0A1 A1B1 B1C1 C1D1 D1D2 D2C2 C2D2 D2D1 D1C1 C1C0 C0D0 D0D1 D1C1 C1B1 B1A1 A1A0 A0B0 B0C0 C0D0 D0D1 D1C1 C1D1 D1D2 D2C2 C2B2 B2A2 A2A1 A1A0 A0B0 B0B1 B1B2 B2C2 C2C1 C1B1 B1A1 A1A0 A0B0 B0B1 B1B2 B2C2 C2C1 C1C2 C2D2 D2D1 D1C1 C1B1 B1A1 A1B1 B1B2 B2C2 C2C1 C1C0 C0C1 C1B1 B1B0 B0C0 C0D0 D0D1 D1C1 C1C2 C2B2 B2A2 A2A1 A1B1 B1B0 B0A0 A0A1 A1B1 B1C1 C1C0 C0C1 C1C2 C2B2 B2B1 B1A1 A1A2 A2B2 B2B1 B1A1 A1A2 A2B2 B2C2 C2D2 D2D1 D1C1 C1C2 C2B2 B2A2 A2A1 A1B1 B1C1 C1C0 C0B0 B0A0 A0A1 A1B1 B1B0 B0A0 A0A1 A1B1 B1B0 B0C0 C0C1 C1B1 B1B0 B0A0 A0A1 A1A0 A0B0 B0B1 B1C1 C1C0 C0B0 B0A0 A0A1 A1B1 B1C1 C1D1 D1D0 D0C0 C0C1 C1D1 D1C1 C1B1 B1A1 A1A0 A0B0 B0B1 B1C1 C1C2 C2C1 C1C0 C0B0 B0A0 A0A1 A1B1 B1C1 C1D1 D1D2 D2C2 C2C1 C1C0 C0D0 D0D1 D1C1 C1B1 B1B2 B2C2 C2D2 D2D1 D1D0 D0C0 C0B0 B0A0 A0A1 A1A2 A2B2 B2B1 B1A1 A1A2 A2B2 B2A2 A2A1 A1A2 A2B2 B2B1 B1C1 C1C2 C2B2 B2B1 B1C1 C1C2 C2D2 D2D1 D1C1 C1B1 B1A1 A1A2 A2B2 B2B1 B1C1 C1B1 B1B0 B0C0 C0D0 D0D1 D1C1 C1C0 C0B0 B0B1 B1A1 A1A2 A2B2 B2B1 B1B2 B2A2 A2A1 A1A0 A0B0 B0C0 C0B0 B0B1 B1C1 C1D1 D1D2 D2C2 C2B2 B2B1 B1C1 C1D1 D1C1 C1C0 C0C1 C1B1 B1A1 A1A0 A0B0 B0C0 C0C1 C1C2 C2D2 D2D1 D1C1 C1C0 C0D0 D0D1 D1D2 D2C2 C2C1 C1D1 D1D2 D2C2 C2C1 C1C0 C0D0 D0D1 D1D2 D2C2 C2B2 B2A2 A2A1"/>
    </vehicle>
    <vehicle id="2" type="ue" depart="50000.00" departLane="best" departSpeed="random">
        <route edges="B2C2 C2C1 C1C0 C0B0 B0A0 A0A1 A1B1 B1C1 C1B1 B1A1 A1A0 A0B0 B0B1 B1B2 B2C2 C2D2 D2D1 D1C1 C1B1 B1B0 B0C0 C0C1 C1C2 C2D2 D2D1 D1C1 C1B1 B1B2 B2B1 B1B2 B2A2 A2A1 A1B1 B1C1 C1D1 D1D2 D2C2 C2D2 D2D1 D1D0 D0C0 C0C1 C1C2 C2B2 B2A2 A2A1 A1B1 B1A1 A1B1 B1C1 C1D1 D1D2 D2C2 C2C1 C1C0 C0D0 D0D1 D1D0 D0C0 C0C1 C1C2 C2C1 C1B1 B1A1 A1A0 A0B0 B0C0 C0D0 D0D1 D1C1 C1C0 C0B0 B0C0 C0D0 D0D1 D1D2 D2C2 C2B2 B2A2 A2A1 A1B1 B1C1 C1D1 D1D2 D2C2 C2B2 B2A2 A2A1 A1A0 A0B0 B0A0 A0A1 A1A2 A2B2 B2C2 C2C1 C1B1 B1C1 C1C2 C2C1 C1C0 C0B0 B0A0 A0A1 A1B1 B1C1 C1D1 D1D0 D0C0 C0B0 B0B1 B1C1 C1B1 B1C1 C1C0 C0B0 B0B1 B1B2 B2A2 A2A1 A1A0 A0B0 B0C0 C0D0 D0D1 D1C1 C1C0 C0B0 B0B1 B1C1 C1D1 D1D2 D2C2 C2B2 B2B1 B1A1 A1A2 A2B2 B2C2 C2B2 B2B1 B1B0 B0B1 B1C1 C1C2 C2C1 C1B1 B1A1 A1A2 A2B2 B2C2 C2C1 C1B1 B1A1 A1A0 A0B0 B0B1 B1B2 B2B1 B1C1 C1C2 C2D2 D2D1 D1C1 C1B1 B1A1 A1A0 A0B0 B0A0 A0A1 A1B1 B1B0 B0C0 C0D0 D0D1 D1D2 D2C2 C2D2 D2D1 D1C1 C1B1 B1B2 B2A2 A2A1 A1A0 A0B0 B0C0 C0D0 D0D1 D1C1 C1D1 D1C1 C1B1 B1B2 B2C2 C2D2 D2D1 D1C1 C1C2 C2C1 C1C0 C0B0 B0A0 A0A1 A1B1 B1C1 C1D1 D1D0 D0C0 C0B0 B0B1 B1A1 A1B1 B1C1 C1C2 C2C1 C1D1 D1D2 D2C2 C2B2 B2A2 A2A1 A1B1 B1A1 A1A2 A2B2 B2C2 C2C1 C1C0 C0C1 C1B1 B1B0 B0C0 C0C1 C1B1 B1C1 C1C2 C2B2 B2B1 B1A1 A1A2 A2B2 B2C2 C2C1 C1C0 C0B0 B0B1 B1B2 B2C2 C2D2 D2D1 D1D0 D0C0 C0D0 D0D1 D1C1 C1B1 B1A1 A1A2 A2B2 B2A2 A2A1 A1A0 A0B0 B0C0 C0B0 B0A0 A0A1 A1A2 A2B2 B2C2 C2D2 D2D1 D1C1 C1C0 C0B0 B0B1 B1B2 B2C2 C2C1 C1C0 C0C1 C1C2 C2B2 B2A2 A2A1 A1B1 B1B0 B0A0 A0A1 A1A0 A0B0 B0C0 C0C1 C1D1 D1D0 D0C0 C0C1 C1C0 C0D0 D0D1 D1C1 C1C0 C0D0 D0D1 D1D2 D2C2 C2B2 B2A2 A2A1 A1B1"/>
    </vehicle>
    <vehicle id="3" type="ue" depart="75000.00" departLane="best" departSpeed="random">
        <route edges="B1A1 A1B1 B1C1 C1D1 D1D0 D0C0 C0C1 C1D1 D1C1 C1D1 D1D0 D0C0 C0B0 B0A0 A0A1 A1B1 B1B0 B0B1 B1A1 A1A2 A2B2 B2C2 C2D2 D2D1 D1D0 D0C0 C0B0 B0B1 B1C1 C1C0 C0B0 B0B1 B1B2 B2A2 A2A1 A1B1 B1C1 C1D1 D1D2 D2C2 C2D2 D2D1 D1C1 C1C2 C2D2 D2D1 D1D0 D0C0 C0C1 C1D1 D1C1 C1C0 C0B0 B0A0 A0A1 A1A2 A2B2 B2C2 C2C1 C1B1 B1B0 B0C0 C0D0 D0D1 D1D2 D2C2 C2D2 D2D1 D1D0 D0C0 C0C1 C1D1 D1C1 C1D1 D1D0 D0C0 C0B0 B0C0 C0C1 C1C2 C2D2 D2D1 D1C1 C1B1 B1A1 A1A2 A2B2 B2C2 C2D2 D2D1 D1C1 C1C0 C0B0 B0A0 A0A1 A1B1 B1C1 C1D1 D1D0 D0C0 C0B0 B0B1 B1B2 B2B1 B1A1 A1B1 B1C1 C1D1 D1D0 D0C0 C0B0 B0A0 A0A1 A1A2 A2B2 B2B1 B1B0 B0C0 C0D0 D0D1 D1C1 C1D1 D1D2 D2C2 C2B2 B2B1 B1B0 B0C0 C0C1 C1C0 C0B0 B0B1 B1C1 C1C2 C2D2 D2D1 D1D0 D0C0 C0C1 C1D1 D1D2 D2C2 C2B2 B2B1 B1A1 A1A2 A2B2 B2C2 C2C1 C1D1 D1D2 D2C2 C2B2 B2B1 B1A1 A1A2 A2B2 B2C2 C2C1 C1D1 D1D2 D2C2 C2B2 B2B1 B1B0 B0C0 C0B0 B0A0 A0A1 A1A2 A2B2 B2A2 A2A1 A1B1 B1C1 C1C2 C2B2 B2B1 B1A1 A1B1 B1C1 C1B1 B1C1 C1C0 C0B0 B0B1 B1C1 C1C0 C0D0 D0D1 D1C1 C1C0 C0B0 B0B1 B1C1 C1C2 C2B2 B2B1 B1B0 B0A0 A0A1 A1B1 B1C1 C1D1 D1D2 D2C2 C2C1 C1C0 C0C1 C1C2 C2B2 B2C2 C2C1 C1C2 C2C1 C1B1 B1B2 B2A2 A2A1 A1A0 A0B0 B0C0 C0C1 C1C2 C2B2 B2B1 B1B0 B0B1 B1A1 A1A0 A0B0 B0C0 C0D0 D0D1 D1D2 D2C2 C2B2 B2B1 B1A1 A1B1 B1C1 C1B1 B1A1 A1B1 B1B2 B2A2 A2A1 A1B1 B1C1 C1D1 D1D2 D2C2 C2C1 C1D1 D1D0 D0C0 C0C1 C1B1 B1A1 A1A0 A0B0 B0C0 C0C1 C1B1 B1B0 B0A0 A0A1 A1B1 B1B0 B0C0 C0C1 C1C2 C2B2 B2A2 A2A1 A1A0 A0B0 B0C0 C0D0 D0D1 D1C1 C1C2 C2B2 B2B1 B1B0 B0A0 A0A1 A1A2 A2B2 B2C2 C2D2 D2D1 D1D0 D0C0 C0C1 C1C2 C2B2 B2A2 A2A1 A1A0 A0B0 B0C0 C0B0"/>
    </vehicle>
    <vehicle id="4" type="ue" depart="100000.00" departLane="best" departSpeed="random">
        <route edges="C1C0 C0C1 C1B1 B1B0 B0B1 B1C1 C1D1 D1D0 D0C0 C0C1 C1C2 C2C1 C1C2 C2C1 C1C0 C0B0 B0A0 A0A1 A1A2 A2B2 B2B1 B1B0 B0A0 A0A1 A1B1 B1B0 B0B1 B1B2 B2C2 C2C1 C1C0 C0D0 D0D1 D1C1 C1B1 B1A1 A1A0 A0B0 B0B1 B1B2 B2A2 A2A1 A1B1 B1C1 C1C0 C0B0 B0A0 A0A1 A1A2 A2B2 B2C2 C2C1 C1D1 D1C1 C1B1 B1B2 B2C2 C2C1 C1C0 C0B0 B0B1 B1C1 C1C2 C2C1 C1C0 C0B0 B0A0 A0A1 A1A2 A2B2 B2C2 C2C1 C1C2 C2D2 D2D1 D1C1 C1B1 B1A1 A1A2 A2B2 B2A2 A2A1 A1B1 B1C1 C1D1 D1D2 D2C2 C2C1 C1C0 C0B0 B0B1 B1A1 A1A0 A0B0 B0B1 B1C1 C1C0 C0D0 D0D1 D1D2 D2C2 C2B2 B2B1 B1C1 C1D1 D1D0 D0C0 C0C1 C1C2 C2D2 D2D1 D1C1 C1B1 B1C1 C1D1 D1D2 D2C2 C2D2 D2D1 D1D0 D0C0 C0C1 C1B1 B1C1 C1C2 C2B2 B2B1 B1C1 C1C0 C0B0 B0C0 C0D0 D0D1 D1D0 D0C0 C0C1 C1D1 D1D0 D0C0 C0C1 C1C2 C2C1 C1B1 B1B2 B2C2 C2C1 C1C0 C0B0 B0B1 B1C1 C1C0 C0C1 C1C2 C2D2 D2D1 D1D0 D0C0 C0B0 B0B1 B1C1 C1C0 C0B0 B0C0 C0C1 C1B1 B1A1 A1A0 A0B0 B0C0 C0C1 C1B1 B1A1 A1A0 A0B0 B0C0 C0C1 C1B1 B1A1 A1B1 B1B0 B0A0 A0A1 A1B1 B1C1 C1D1 D1D2 D2C2 C2B2 B2A2 A2A1 A1A0 A0B0 B0B1 B1C1 C1C0 C0C1 C1C2 C2B2 B2A2 A2A1 A1B1 B1B0 B0A0 A0A1 A1B1 B1B2 B2A2 A2A1 A1B1 B1C1 C1D1 D1D0 D0C0 C0D0 D0D1 D1C1 C1D1 D1C1 C1C2 C2D2 D2D1 D1C1 C1B1 B1B2 B2B1 B1B0 B0A0 A0A1 A1B1 B1B0 B0B1 B1B2 B2C2 C2C1 C1D1 D1C1 C1D1 D1D2 D2C2 C2B2 B2A2 A2A1 A1B1 B1B2 B2C2 C2C1 C1C0 C0C1 C1B1 B1B0 B0A0 A0A1 A1B1 B1B2 B2A2 A2A1 A1B1 B1B0 B0A0 A0A1 A1B1 B1B0 B0B1 B1C1 C1D1 D1C1 C1B1 B1C1 C1C2 C2B2 B2A2 A2A1 A1A2 A2B2 B2B1 B1A1 A1B1 B1C1 C1C0 C0B0 B0A0 A0A1 A1B1 B1C1 C1C0 C0D0 D0D1 D1C1 C1C0 C0B0 B0A0 A0A1 A1B1 B1C1 C1C0 C0B0 B0A0 A0A1 A1B1 B1B2 B2B1 B1A1 A1A0 A0B0 B0B1 B1B2"/>
    </vehicle>
    <vehicle id="5" type="ue" depart="125000.00" departLane="best" departSpeed="random">
        <route edges="B0A0 A0A1 A1B1 B1B0 B0B1 B1B2 B2C2 C2C1 C1B1 B1B2 B2C2 C2C1 C1C0 C0D0 D0D1 D1C1 C1C0 C0B0 B0B1 B1A1 A1A0 A0B0 B0A0 A0A1 A1B1 B1C1 C1C0 C0C1 C1C2 C2D2 D2D1 D1C1 C1B1 B1B0 B0C0 C0C1 C1C2 C2D2 D2D1 D1C1 C1C2 C2C1 C1D1 D1D2 D2C2 C2B2 B2B1 B1A1 A1A2 A2B2 B2B1 B1B0 B0A0 A0A1 A1B1 B1B2 B2A2 A2A1 A1B1 B1C1 C1C2 C2C1 C1C0 C0D0 D0D1 D1C1 C1C0 C0B0 B0A0 A0A1 A1B1 B1C1 C1D1 D1C1 C1C2 C2D2 D2D1 D1C1 C1C2 C2B2 B2A2 A2A1 A1B1 B1C1 C1B1 B1B2 B2C2 C2C1 C1B1 B1A1 A1A2 A2B2 B2C2 C2D2 D2D1 D1D0 D0C0 C0C1 C1D1 D1D2 D2C2 C2B2 B2B1 B1A1 A1A2 A2B2 B2B1 B1B0 B0A0 A0A1 A1B1 B1A1 A1B1 B1C1 C1D1 D1D2 D2C2 C2B2 B2B1 B1C1 C1C2 C2B2 B2A2 A2A1 A1A0 A0B0 B0C0 C0C1 C1D1 D1C1 C1C0 C0B0 B0A0 A0A1 A1A2 A2B2 B2C2 C2D2 D2D1 D1C1 C1C0 C0D0 D0D1 D1C1 C1B1 B1A1 A1B1 B1B2 B2C2 C2D2 D2D1 D1C1 C1C2 C2D2 D2D1 D1C1 C1B1 B1B0 B0B1 B1B2 B2A2 A2A1 A1B1 B1B2 B2C2 C2C1 C1C0 C0B0 B0B1 B1B0 B0C0 C0D0 D0D1 D1D0 D0C0 C0B0 B0A0 A0A1 A1A2 A2B2 B2C2 C2C1 C1D1 D1D2 D2C2 C2C1 C1C0 C0D0 D0D1 D1D2 D2C2 C2B2 B2A2 A2A1 A1B1 B1C1 C1C2 C2B2 B2B1 B1C1 C1D1 D1D2 D2C2 C2B2 B2B1 B1B0 B0C0 C0C1 C1D1 D1D0 D0C0 C0C1 C1B1 B1B2 B2C2 C2B2 B2A2 A2A1 A1B1 B1C1 C1C2 C2B2 B2B1 B1B0 B0C0 C0D0 D0D1 D1C1 C1B1 B1A1 A1A0 A0B0 B0C0 C0D0 D0D1 D1C1 C1C0 C0B0 B0B1 B1B2 B2B1 B1C1 C1B1 B1B2 B2B1 B1B0 B0A0 A0A1 A1B1 B1B0 B0C0 C0D0 D0D1 D1C1 C1B1 B1A1 A1A2 A2B2 B2B1 B1B0 B0A0 A0A1 A1B1 B1C1 C1D1 D1D0 D0C0 C0C1 C1B1 B1B0 B0C0 C0D0 D0D1 D1C1 C1D1 D1C1 C1B1 B1B0 B0C0 C0B0 B0A0 A0A1 A1B1 B1C1 C1D1 D1D2 D2C2 C2B2 B2A2 A2A1 A1A0 A0B0 B0C0 C0C1 C1C2 C2B2 B2C2 C2C1 C1D1 D1C1 C1C0 C0B0 B0B1 B1B2 B2C2 C2D2 D2D1 D1C1 C1B1 B1A1 A1A2 A2B2 B2B1 B1B0 B0A0 A0A1 A1B1 B1C1 C1D1 D1C1 C1B1 B1A1"/>
    </vehicle>
    <vehicle id="6" type="ue" depart="150000.00" departLane="best" departSpeed="random">
        <route edges="C0D0 D0D1 D1C1 C1B1 B1B2 B2C2 C2C1 C1C0 C0C1 C1C2 C2B2 B2A2 A2A1 A1B1 B1B2 B2C2 C2C1 C1B1 B1B0 B0B1 B1C1 C1D1 D1C1 C1B1 B1B0 B0C0 C0B0 B0B1 B1A1 A1B1 B1A1 A1A2 A2B2 B2B1 B1A1 A1B1 B1C1 C1C0 C0C1 C1C2 C2C1 C1B1 B1A1 A1A2 A2B2 B2B1 B1B0 B0A0 A0A1 A1A2 A2B2 B2C2 C2B2 B2C2 C2D2 D2D1 D1D0 D0C0 C0B0 B0C0 C0B0 B0A0 A0A1 A1A2 A2B2 B2B1 B1B0 B0A0 A0A1 A1A2 A2B2 B2B1 B1B0 B0A0 A0A1 A1B1 B1C1 C1C0 C0C1 C1B1 B1B0 B0C0 C0C1 C1C2 C2D2 D2D1 D1D0 D0C0 C0C1 C1D1 D1C1 C1B1 B1A1 A1B1 B1C1 C1D1 D1C1 C1B1 B1B2 B2C2 C2D2 D2D1 D1C1 C1C0 C0D0 D0D1 D1D2 D2C2 C2B2 B2B1 B1B2 B2A2 A2A1 A1A2 A2B2 B2B1 B1A1 A1A0 A0B0 B0C0 C0D0 D0D1 D1D2 D2C2 C2B2 B2C2 C2D2 D2D1 D1D0 D0C0 C0B0 B0B1 B1C1 C1B1 B1A1 A1A0 A0B0 B0B1 B1C1 C1C0 C0B0 B0B1 B1A1 A1A0 A0B0 B0B1 B1B2 B2A2 A2A1 A1A0 A0B0 B0C0 C0D0 D0D1 D1C1 C1B1 B1A1 A1A2 A2B2 B2C2 C2D2 D2D1 D1C1 C1B1 B1A1 A1B1 B1B2 B2C2 C2C1 C1B1 B1B2 B2C2 C2D2 D2D1 D1D0 D0C0 C0B0 B0A0 A0A1 A1B1 B1C1 C1C0 C0B0 B0B1 B1B2 B2B1 B1C1 C1D1 D1C1 C1C2 C2D2 D2D1 D1C1 C1B1 B1A1 A1B1 B1C1 C1C0 C0C1 C1B1 B1B2 B2C2 C2C1 C1D1 D1D2 D2C2 C2B2 B2B1 B1B0 B0A0 A0A1 A1B1 B1C1 C1C2 C2B2 B2A2 A2A1 A1A0 A0B0 B0A0 A0A1 A1A2 A2B2 B2B1 B1C1 C1B1 B1B0 B0C0 C0B0 B0A0 A0A1 A1B1 B1C1 C1C2 C2B2 B2B1 B1C1 C1D1 D1D2 D2C2 C2B2 B2B1 B1C1 C1D1 D1D2 D2C2 C2D2 D2D1 D1C1 C1C0 C0C1 C1C2 C2C1 C1D1 D1D2 D2C2 C2B2 B2A2 A2A1 A1A0 A0B0 B0C0 C0C1 C1C2 C2D2 D2D1 D1D0 D0C0 C0D0 D0D1 D1C1 C1B1 B1A1 A1A0 A0B0 B0B1 B1B2 B2A2 A2A1 A1B1 B1A1 A1A2 A2B2 B2C2 C2C1 C1C0 C0D0 D0D1 D1C1 C1B1 B1B0 B0C0 C0B0 B0A0 A0A1 A1B1 B1C1 C1D1 D1D2 D2C2 C2C1 C1C0 C0B0"/>
    </vehicle>
    <vehicle id="7" type="ue" depart="175000.00" departLane="best" departSpeed="random">
        <route edges="B2C2 C2C1 C1B1 B1A1 A1A0 A0B0 B0B1 B1B2 B2A2 A2A1 A1B1 B1A1 A1A0 A0B0 B0B1 B1A1 A1A2 A2B2 B2C2 C2C1 C1D1 D1D2 D2C2 C2C1 C1C0 C0D0 D0D1 D1C1 C1C0 C0D0 D0D1 D1D2 D2C2 C2D2 D2D1 D1C1 C1C2 C2B2 B2B1 B1B0 B0C0 C0C1 C1B1 B1A1 A1A0 A0B0 B0B1 B1B2 B2C2 C2C1 C1B1 B1B2 B2B1 B1C1 C1C2 C2C1 C1D1 D1D2 D2C2 C2B2 B2B1 B1A1 A1A2 A2B2 B2B1 B1B0 B0C0 C0D0 D0D1 D1C1 C1C0 C0B0 B0B1 B1B2 B2C2 C2C1 C1B1 B1A1 A1A2 A2B2 B2B1 B1B0 B0C0 C0C1 C1C2 C2D2 D2D1 D1C1 C1B1 B1B0 B0B1 B1C1 C1D1 D1C1 C1B1 B1B0 B0C0 C0D0 D0D1 D1D2 D2C2 C2D2 D2D1 D1D0 D0C0 C0C1 C1C2 C2B2 B2B1 B1A1 A1B1 B1C1 C1D1 D1D2 D2C2 C2B2 B2B1 B1C1 C1C0 C0B0 B0B1 B1B2 B2C2 C2D2 D2D1 D1C1 C1C2 C2C1 C1C0 C0C1 C1C2 C2B2 B2A2 A2A1 A1A2 A2B2 B2B1 B1B2 B2C2 C2C1 C1C0 C0C1 C1C2 C2C1 C1B1 B1A1 A1A2 A2B2 B2C2 C2C1 C1C0 C0C1 C1D1 D1D2 D2C2 C2B2 B2A2 A2A1 A1B1 B1C1 C1D1 D1C1 C1B1 B1A1 A1B1 B1B2 B2C2 C2D2 D2D1 D1C1 C1B1 B1B0 B0B1 B1B2 B2A2 A2A1 A1A0 A0B0 B0C0 C0C1 C1B1 B1A1 A1A2 A2B2 B2C2 C2D2 D2D1 D1D2 D2C2 C2B2 B2B1 B1A1 A1A2 A2B2 B2B1 B1B0 B0C0 C0D0 D0D1 D1C1 C1B1 B1B2 B2C2 C2B2 B2B1 B1C1 C1C0 C0B0 B0C0 C0D0 D0D1 D1C1 C1C2 C2D2 D2D1 D1D0 D0C0 C0B0 B0B1 B1C1 C1C0 C0C1 C1B1 B1C1 C1D1 D1D2 D2C2 C2C1 C1C0 C0B0 B0B1 B1C1 C1D1 D1C1 C1B1 B1B0 B0C0 C0C1 C1C2 C2D2 D2D1 D1C1 C1C2 C2B2 B2A2 A2A1 A1B1 B1C1 C1D1 D1D2 D2C2 C2C1 C1C0 C0B0 B0B1 B1C1 C1D1 D1D0 D0C0 C0B0 B0C0 C0C1 C1B1 B1A1 A1A0 A0B0 B0C0 C0D0 D0D1 D1C1 C1C2 C2D2 D2D1 D1C1 C1B1 B1B2 B2C2 C2B2 B2A2 A2A1 A1A0 A0B0 B0C0 C0C1 C1B1 B1B0 B0C0 C0C1 C1C2 C2B2 B2B1 B1A1 A1A2 A2B2 B2C2 C2C1 C1D1 D1C1 C1C0 C0D0 D0D1 D1C1 C1C0 C0B0 B0A0"/>
    </vehicle>
    <vehicle id="8" type="ue" depart="200000.00" departLane="best" departSpeed="random">
        <route edges="C2D2 D2D1 D1C1 C1B1 B1A1 A1A0 A0B0 B0B1 B1B2 B2C2 C2C1 C1D1 D1D0 D0C0 C0B0 B0B1 B1C1 C1C2 C2D2 D2D1 D1D0 D0C0 C0C1 C1C2 C2D2 D2D1 D1C1 C1B1 B1B2 B2C2 C2C1 C1B1 B1A1 A1A0 A0B0 B0C0 C0B0 B0B1 B1C1 C1B1 B1C1 C1D1 D1C1 C1C2 C2B2 B2A2 A2A1 A1B1 B1C1 C1C0 C0B0 B0B1 B1B2 B2B1 B1C1 C1C2 C2B2 B2B1 B1C1 C1C2 C2B2 B2A2 A2A1 A1A2 A2B2 B2B1 B1C1 C1D1 D1D2 D2C2 C2B2 B2B1 B1B0 B0B1 B1C1 C1D1 D1C1 C1C2 C2C1 C1C0 C0D0 D0D1 D1C1 C1B1 B1B2 B2B1 B1A1 A1B1 B1C1 C1C2 C2B2 B2C2 C2C1 C1D1 D1C1 C1B1 B1A1 A1A0 A0B0 B0B1 B1A1 A1A0 A0B0 B0B1 B1C1 C1C0 C0D0 D0D1 D1D2 D2C2 C2D2 D2D1 D1C1 C1C2 C2C1 C1B1 B1B2 B2A2 A2A1 A1A2 A2B2 B2C2 C2C1 C1C0 C0D0 D0D1 D1C1 C1B1 B1B2 B2B1 B1C1 C1D1 D1D0 D0C0 C0B0 B0B1 B1A1 A1A0 A0B0 B0C0 C0C1 C1D1 D1D0 D0C0 C0B0 B0C0 C0C1 C1B1 B1B2 B2A2 A2A1 A1B1 B1C1 C1C0 C0C1 C1C0 C0D0 D0D1 D1C1 C1C2 C2D2 D2D1 D1C1 C1C2 C2B2 B2A2 A2A1 A1A0 A0B0 B0C0 C0D0 D0D1 D1C1 C1C0 C0B0 B0B1 B1C1 C1D1 D1D2 D2C2 C2B2 B2A2 A2A1 A1B1 B1B2 B2B1 B1B0 B0B1 B1B0 B0A0 A0A1 A1B1 B1C1 C1D1 D1D0 D0C0 C0C1 C1D1 D1D0 D0C0 C0C1 C1D1 D1D2 D2C2 C2B2 B2A2 A2A1 A1A2 A2B2 B2B1 B1B0 B0C0 C0D0 D0D1 D1C1 C1C0 C0B0 B0B1 B1B2 B2A2 A2A1 A1A0 A0B0 B0B1 B1C1 C1C0 C0D0 D0D1 D1C1 C1B1 B1A1 A1A2 A2B2 B2B1 B1C1 C1B1 B1B2 B2C2 C2C1 C1C0 C0B0 B0B1 B1C1 C1C0 C0D0 D0D1 D1C1 C1C2 C2D2 D2D1 D1C1 C1B1 B1A1 A1A2 A2B2 B2C2 C2D2 D2D1 D1C1 C1C2 C2B2 B2B1 B1B0 B0C0 C0D0 D0D1 D1C1 C1D1 D1D2 D2C2 C2C1 C1B1 B1A1 A1A0 A0B0 B0C0 C0C1 C1B1 B1B2 B2C2 C2D2 D2D1 D1D0 D0C0 C0B0 B0C0 C0C1 C1D1 D1D0 D0C0 C0C1 C1B1 B1B0 B0B1 B1C1 C1C0"/>
    </vehicle>
    <vehicle id="9" type="ue" depart="225000.00" departLane="best" departSpeed="random">
        <route edges="C1D1 D1D2 D2C2 C2B2 B2B1 B1C1 C1C2 C2C1 C1C0 C0D0 D0D1 D1C1 C1C0 C0C1 C1D1 D1D0 D0C0 C0C1 C1C0 C0B0 B0B1 B1A1 A1B1 B1B2 B2A2 A2A1 A1A0 A0B0 B0C0 C0D0 D0D1 D1D2 D2C2 C2B2 B2B1 B1A1 A1A2 A2B2 B2B1 B1A1 A1A2 A2B2 B2C2 C2C1 C1B1 B1B2 B2A2 A2A1 A1B1 B1C1 C1C0 C0C1 C1C2 C2D2 D2D1 D1D0 D0C0 C0C1 C1D1 D1D2 D2C2 C2C1 C1C0 C0D0 D0D1 D1C1 C1C0 C0B0 B0B1 B1C1 C1C0 C0D0 D0D1 D1C1 C1B1 B1B2 B2C2 C2D2 D2D1 D1D0 D0C0 C0C1 C1C2 C2C1 C1B1 B1B0 B0A0 A0A1 A1A2 A2B2 B2C2 C2C1 C1D1 D1D2 D2C2 C2B2 B2A2 A2A1 A1B1 B1C1 C1D1 D1D2 D2C2 C2D2 D2D1 D1C1 C1C2 C2B2 B2C2 C2D2 D2D1 D1D2 D2C2 C2D2 D2D1 D1D0 D0C0 C0B0 B0B1 B1B2 B2C2 C2D2 D2D1 D1D0 D0C0 C0B0 B0A0 A0A1 A1B1 B1C1 C1C0 C0C1 C1C2 C2B2 B2B1 B1C1 C1C2 C2C1 C1C0 C0D0 D0D1 D1D0 D0C0 C0C1 C1D1 D1D2 D2C2 C2B2 B2B1 B1A1 A1A2 A2B2 B2B1 B1B0 B0A0 A0A1 A1B1 B1C1 C1D1 D1D0 D0C0 C0D0 D0D1 D1D2 D2C2 C2C1 C1C0 C0B0 B0A0 A0A1 A1A0 A0B0 B0C0 C0D0 D0D1 D1D0 D0C0 C0B0 B0B1 B1A1 A1B1 B1C1 C1B1 B1A1 A1B1 B1C1 C1D1 D1D2 D2C2 C2B2 B2B1 B1A1 A1A2 A2B2 B2C2 C2C1 C1B1 B1A1 A1A2 A2B2 B2C2 C2D2 D2D1 D1D0 D0C0 C0B0 B0A0 A0A1 A1B1 B1B2 B2B1 B1C1 C1C2 C2C1 C1D1 D1D2 D2C2 C2B2 B2A2 A2A1 A1B1 B1B2 B2C2 C2C1 C1B1 B1B2 B2A2 A2A1 A1B1 B1B2 B2A2 A2A1 A1A2 A2B2 B2C2 C2C1 C1B1 B1C1 C1D1 D1D2 D2C2 C2B2 B2A2 A2A1 A1A0 A0B0 B0B1 B1B2 B2B1 B1C1 C1D1 D1D2 D2C2 C2D2 D2D1 D1C1 C1B1 B1A1 A1A2 A2B2 B2C2 C2C1 C1D1 D1D0 D0C0 C0C1 C1C2 C2D2 D2D1 D1C1 C1B1 B1B2 B2B1 B1C1 C1B1 B1A1 A1A2 A2B2 B2B1 B1A1 A1B1 B1B0 B0C0 C0D0 D0D1 D1D2 D2C2 C2B2 B2B1 B1C1 C1C2 C2C1 C1C0 C0C1 C1B1 B1B0 B0A0 A0A1 A1A2 A2B2 B2C2 C2D2 D2D1 D1D0 D0C0 C0B0 B0B1 B1A1 A1B1 B1B0 B0C0 C0D0 D0D1 D1C1 C1B1 B1A1 A1A0 A0B0 B0B1 B1B2 B2C2 C2D2"/>
    </vehicle>
</routes>
