<?xml version="1.0" encoding="UTF-8"?>

<!-- generated on 2025-11-15T07:55:17.955113+00:00 by Eclipse SUMO netgenerate 1.25.0
<netgenerateConfiguration xmlns:xsi="http://www.w3.org/2001/XMLSchema-instance" xsi:noNamespaceSchemaLocation="http://sumo.dlr.de/xsd/netgenerateConfiguration.xsd">

    <grid_network>
        <grid value="true"/>
        <grid.length value="300"/>
        <grid.x-number value="4"/>
        <grid.y-number value="3"/>
        <grid.x-length value="1075"/>
        <grid.y-length value="600"/>
    </grid_network>

    <output>
        <output-file value="urban-scenario.net.xml"/>
    </output>

    <processing>
        <offset.x value="175"/>
        <offset.y value="230"/>
    </processing>

    <building_defaults>
        <default.lanenumber value="1"/>
        <default.speed value="60"/>
    </building_defaults>

    <junctions>
        <no-turnarounds value="false"/>
        <no-left-connections value="false"/>
    </junctions>

</netgenerateConfiguration>
-->

<net version="1.20" junctionCornerDetail="5" limitTurnSpeed="5.50" xmlns:xsi="http://www.w3.org/2001/XMLSchema-instance" xsi:noNamespaceSchemaLocation="http://sumo.dlr.de/xsd/net_file.xsd">

    <location netOffset="175.00,230.00" convBoundary="175.00,230.00,3400.00,1430.00" origBoundary="0.00,0.00,3225.00,1200.00" projParameter="!"/>

    <edge id=":A0_0" function="internal">
        <lane id=":A0_0_0" index="0" speed="6.08" length="7.74" shape="173.40,233.20 173.70,231.10 174.60,229.60 176.10,228.70 178.20,228.40"/>
    </edge>
    <edge id=":A0_1" function="internal">
        <lane id=":A0_1_0" index="0" speed="3.90" length="2.58" shape="178.20,231.60 177.50,231.70 177.00,232.00 176.70,232.50 176.60,233.20"/>
    </edge>
    <edge id=":A1_0" function="internal">
        <lane id=":A1_0_0" index="0" speed="60.00" length="14.40" shape="173.40,837.20 173.40,822.80"/>
    </edge>
    <edge id=":A1_1" function="internal">
        <lane id=":A1_1_0" index="0" speed="8.00" length="4.07" shape="173.40,837.20 173.95,833.35 174.04,833.20"/>
    </edge>
    <edge id=":A1_2" function="internal">
        <lane id=":A1_2_0" index="0" speed="3.65" length="1.44" shape="173.40,837.20 174.20,836.00"/>
    </edge>
    <edge id=":A1_9" function="internal">
        <lane id=":A1_9_0" index="0" speed="8.00" length="10.13" shape="174.04,833.20 175.60,830.60 178.35,828.95 182.20,828.40"/>
    </edge>
    <edge id=":A1_10" function="internal">
        <lane id=":A1_10_0" index="0" speed="3.65" length="3.23" shape="174.20,836.00 175.00,835.60 175.80,836.00 176.60,837.20"/>
    </edge>
    <edge id=":A1_3" function="internal">
        <lane id=":A1_3_0" index="0" speed="6.51" length="9.03" shape="182.20,831.60 179.75,831.95 178.00,833.00 176.95,834.75 176.60,837.20"/>
    </edge>
    <edge id=":A1_4" function="internal">
        <lane id=":A1_4_0" index="0" speed="8.00" length="14.19" shape="182.20,831.60 178.35,831.05 175.60,829.40 173.95,826.65 173.40,822.80"/>
    </edge>
    <edge id=":A1_5" function="internal">
        <lane id=":A1_5_0" index="0" speed="3.65" length="4.67" shape="182.20,831.60 181.00,830.80 180.60,830.00 181.00,829.20 182.20,828.40"/>
    </edge>
    <edge id=":A1_6" function="internal">
        <lane id=":A1_6_0" index="0" speed="6.51" length="9.03" shape="176.60,822.80 176.95,825.25 178.00,827.00 179.75,828.05 182.20,828.40"/>
    </edge>
    <edge id=":A1_7" function="internal">
        <lane id=":A1_7_0" index="0" speed="60.00" length="14.40" shape="176.60,822.80 176.60,837.20"/>
    </edge>
    <edge id=":A1_8" function="internal">
        <lane id=":A1_8_0" index="0" speed="3.65" length="1.44" shape="176.60,822.80 175.80,824.00"/>
    </edge>
    <edge id=":A1_11" function="internal">
        <lane id=":A1_11_0" index="0" speed="3.65" length="3.23" shape="175.80,824.00 175.00,824.40 174.20,824.00 173.40,822.80"/>
    </edge>
    <edge id=":A2_0" function="internal">
        <lane id=":A2_0_0" index="0" speed="6.08" length="7.74" shape="178.20,1431.60 176.10,1431.30 174.60,1430.40 173.70,1428.90 173.40,1426.80"/>
    </edge>
    <edge id=":A2_1" function="internal">
        <lane id=":A2_1_0" index="0" speed="3.90" length="2.58" shape="176.60,1426.80 176.70,1427.50 177.00,1428.00 177.50,1428.30 178.20,1428.40"/>
    </edge>
    <edge id=":B0_0" function="internal">
        <lane id=":B0_0_0" index="0" speed="6.51" length="9.03" shape="1248.40,237.20 1248.05,234.75 1247.00,233.00 1245.25,231.95 1242.80,231.60"/>
    </edge>
    <edge id=":B0_1" function="internal">
        <lane id=":B0_1_0" index="0" speed="8.00" length="14.19" shape="1248.40,237.20 1248.95,233.35 1250.60,230.60 1253.35,228.95 1257.20,228.40"/>
    </edge>
    <edge id=":B0_2" function="internal">
        <lane id=":B0_2_0" index="0" speed="3.65" length="4.67" shape="1248.40,237.20 1249.20,236.00 1250.00,235.60 1250.80,236.00 1251.60,237.20"/>
    </edge>
    <edge id=":B0_3" function="internal">
        <lane id=":B0_3_0" index="0" speed="6.51" length="9.03" shape="1257.20,231.60 1254.75,231.95 1253.00,233.00 1251.95,234.75 1251.60,237.20"/>
    </edge>
    <edge id=":B0_4" function="internal">
        <lane id=":B0_4_0" index="0" speed="60.00" length="14.40" shape="1257.20,231.60 1242.80,231.60"/>
    </edge>
    <edge id=":B0_5" function="internal">
        <lane id=":B0_5_0" index="0" speed="3.65" length="1.44" shape="1257.20,231.60 1256.00,230.80"/>
    </edge>
    <edge id=":B0_9" function="internal">
        <lane id=":B0_9_0" index="0" speed="3.65" length="3.23" shape="1256.00,230.80 1255.60,230.00 1256.00,229.20 1257.20,228.40"/>
    </edge>
    <edge id=":B0_6" function="internal">
        <lane id=":B0_6_0" index="0" speed="60.00" length="14.40" shape="1242.80,228.40 1257.20,228.40"/>
    </edge>
    <edge id=":B0_7" function="internal">
        <lane id=":B0_7_0" index="0" speed="8.00" length="4.07" shape="1242.80,228.40 1246.65,228.95 1246.80,229.04"/>
    </edge>
    <edge id=":B0_8" function="internal">
        <lane id=":B0_8_0" index="0" speed="3.65" length="1.44" shape="1242.80,228.40 1244.00,229.20"/>
    </edge>
    <edge id=":B0_10" function="internal">
        <lane id=":B0_10_0" index="0" speed="8.00" length="10.13" shape="1246.80,229.04 1249.40,230.60 1251.05,233.35 1251.60,237.20"/>
    </edge>
    <edge id=":B0_11" function="internal">
        <lane id=":B0_11_0" index="0" speed="3.65" length="3.23" shape="1244.00,229.20 1244.40,230.00 1244.00,230.80 1242.80,231.60"/>
    </edge>
    <edge id=":B1_0" function="internal">
        <lane id=":B1_0_0" index="0" speed="6.51" length="9.03" shape="1248.40,837.20 1248.05,834.75 1247.00,833.00 1245.25,831.95 1242.80,831.60"/>
    </edge>
    <edge id=":B1_1" function="internal">
        <lane id=":B1_1_0" index="0" speed="60.00" length="14.40" shape="1248.40,837.20 1248.40,822.80"/>
    </edge>
    <edge id=":B1_2" function="internal">
        <lane id=":B1_2_0" index="0" speed="8.00" length="4.07" shape="1248.40,837.20 1248.95,833.35 1249.04,833.20"/>
    </edge>
    <edge id=":B1_3" function="internal">
        <lane id=":B1_3_0" index="0" speed="3.65" length="1.44" shape="1248.40,837.20 1249.20,836.00"/>
    </edge>
    <edge id=":B1_16" function="internal">
        <lane id=":B1_16_0" index="0" speed="8.00" length="10.13" shape="1249.04,833.20 1250.60,830.60 1253.35,828.95 1257.20,828.40"/>
    </edge>
    <edge id=":B1_17" function="internal">
        <lane id=":B1_17_0" index="0" speed="3.65" length="3.23" shape="1249.20,836.00 1250.00,835.60 1250.80,836.00 1251.60,837.20"/>
    </edge>
    <edge id=":B1_4" function="internal">
        <lane id=":B1_4_0" index="0" speed="6.51" length="9.03" shape="1257.20,831.60 1254.75,831.95 1253.00,833.00 1251.95,834.75 1251.60,837.20"/>
    </edge>
    <edge id=":B1_5" function="internal">
        <lane id=":B1_5_0" index="0" speed="60.00" length="14.40" shape="1257.20,831.60 1242.80,831.60"/>
    </edge>
    <edge id=":B1_6" function="internal">
        <lane id=":B1_6_0" index="0" speed="8.00" length="14.19" shape="1257.20,831.60 1253.35,831.05 1250.60,829.40 1248.95,826.65 1248.40,822.80"/>
    </edge>
    <edge id=":B1_7" function="internal">
        <lane id=":B1_7_0" index="0" speed="3.65" length="4.67" shape="1257.20,831.60 1256.00,830.80 1255.60,830.00 1256.00,829.20 1257.20,828.40"/>
    </edge>
    <edge id=":B1_8" function="internal">
        <lane id=":B1_8_0" index="0" speed="6.51" length="9.03" shape="1251.60,822.80 1251.95,825.25 1253.00,827.00 1254.75,828.05 1257.20,828.40"/>
    </edge>
    <edge id=":B1_9" function="internal">
        <lane id=":B1_9_0" index="0" speed="60.00" length="14.40" shape="1251.60,822.80 1251.60,837.20"/>
    </edge>
    <edge id=":B1_10" function="internal">
        <lane id=":B1_10_0" index="0" speed="8.00" length="4.07" shape="1251.60,822.80 1251.05,826.65 1250.96,826.80"/>
    </edge>
    <edge id=":B1_11" function="internal">
        <lane id=":B1_11_0" index="0" speed="3.65" length="1.44" shape="1251.60,822.80 1250.80,824.00"/>
    </edge>
    <edge id=":B1_18" function="internal">
        <lane id=":B1_18_0" index="0" speed="8.00" length="10.13" shape="1250.96,826.80 1249.40,829.40 1246.65,831.05 1242.80,831.60"/>
    </edge>
    <edge id=":B1_19" function="internal">
        <lane id=":B1_19_0" index="0" speed="3.65" length="3.23" shape="1250.80,824.00 1250.00,824.40 1249.20,824.00 1248.40,822.80"/>
    </edge>
    <edge id=":B1_12" function="internal">
        <lane id=":B1_12_0" index="0" speed="6.51" length="9.03" shape="1242.80,828.40 1245.25,828.05 1247.00,827.00 1248.05,825.25 1248.40,822.80"/>
    </edge>
    <edge id=":B1_13" function="internal">
        <lane id=":B1_13_0" index="0" speed="60.00" length="14.40" shape="1242.80,828.40 1257.20,828.40"/>
    </edge>
    <edge id=":B1_14" function="internal">
        <lane id=":B1_14_0" index="0" speed="8.00" length="14.19" shape="1242.80,828.40 1246.65,828.95 1249.40,830.60 1251.05,833.35 1251.60,837.20"/>
    </edge>
    <edge id=":B1_15" function="internal">
        <lane id=":B1_15_0" index="0" speed="3.65" length="4.67" shape="1242.80,828.40 1244.00,829.20 1244.40,830.00 1244.00,830.80 1242.80,831.60"/>
    </edge>
    <edge id=":B2_0" function="internal">
        <lane id=":B2_0_0" index="0" speed="60.00" length="14.40" shape="1257.20,1431.60 1242.80,1431.60"/>
    </edge>
    <edge id=":B2_1" function="internal">
        <lane id=":B2_1_0" index="0" speed="8.00" length="4.07" shape="1257.20,1431.60 1253.35,1431.05 1253.20,1430.96"/>
    </edge>
    <edge id=":B2_2" function="internal">
        <lane id=":B2_2_0" index="0" speed="3.65" length="1.44" shape="1257.20,1431.60 1256.00,1430.80"/>
    </edge>
    <edge id=":B2_9" function="internal">
        <lane id=":B2_9_0" index="0" speed="8.00" length="10.13" shape="1253.20,1430.96 1250.60,1429.40 1248.95,1426.65 1248.40,1422.80"/>
    </edge>
    <edge id=":B2_10" function="internal">
        <lane id=":B2_10_0" index="0" speed="3.65" length="3.23" shape="1256.00,1430.80 1255.60,1430.00 1256.00,1429.20 1257.20,1428.40"/>
    </edge>
    <edge id=":B2_3" function="internal">
        <lane id=":B2_3_0" index="0" speed="6.51" length="9.03" shape="1251.60,1422.80 1251.95,1425.25 1253.00,1427.00 1254.75,1428.05 1257.20,1428.40"/>
    </edge>
    <edge id=":B2_4" function="internal">
        <lane id=":B2_4_0" index="0" speed="8.00" length="14.19" shape="1251.60,1422.80 1251.05,1426.65 1249.40,1429.40 1246.65,1431.05 1242.80,1431.60"/>
    </edge>
    <edge id=":B2_5" function="internal">
        <lane id=":B2_5_0" index="0" speed="3.65" length="4.67" shape="1251.60,1422.80 1250.80,1424.00 1250.00,1424.40 1249.20,1424.00 1248.40,1422.80"/>
    </edge>
    <edge id=":B2_6" function="internal">
        <lane id=":B2_6_0" index="0" speed="6.51" length="9.03" shape="1242.80,1428.40 1245.25,1428.05 1247.00,1427.00 1248.05,1425.25 1248.40,1422.80"/>
    </edge>
    <edge id=":B2_7" function="internal">
        <lane id=":B2_7_0" index="0" speed="60.00" length="14.40" shape="1242.80,1428.40 1257.20,1428.40"/>
    </edge>
    <edge id=":B2_8" function="internal">
        <lane id=":B2_8_0" index="0" speed="3.65" length="1.44" shape="1242.80,1428.40 1244.00,1429.20"/>
    </edge>
    <edge id=":B2_11" function="internal">
        <lane id=":B2_11_0" index="0" speed="3.65" length="3.23" shape="1244.00,1429.20 1244.40,1430.00 1244.00,1430.80 1242.80,1431.60"/>
    </edge>
    <edge id=":C0_0" function="internal">
        <lane id=":C0_0_0" index="0" speed="6.51" length="9.03" shape="2323.40,237.20 2323.05,234.75 2322.00,233.00 2320.25,231.95 2317.80,231.60"/>
    </edge>
    <edge id=":C0_1" function="internal">
        <lane id=":C0_1_0" index="0" speed="8.00" length="14.19" shape="2323.40,237.20 2323.95,233.35 2325.60,230.60 2328.35,228.95 2332.20,228.40"/>
    </edge>
    <edge id=":C0_2" function="internal">
        <lane id=":C0_2_0" index="0" speed="3.65" length="4.67" shape="2323.40,237.20 2324.20,236.00 2325.00,235.60 2325.80,236.00 2326.60,237.20"/>
    </edge>
    <edge id=":C0_3" function="internal">
        <lane id=":C0_3_0" index="0" speed="6.51" length="9.03" shape="2332.20,231.60 2329.75,231.95 2328.00,233.00 2326.95,234.75 2326.60,237.20"/>
    </edge>
    <edge id=":C0_4" function="internal">
        <lane id=":C0_4_0" index="0" speed="60.00" length="14.40" shape="2332.20,231.60 2317.80,231.60"/>
    </edge>
    <edge id=":C0_5" function="internal">
        <lane id=":C0_5_0" index="0" speed="3.65" length="1.44" shape="2332.20,231.60 2331.00,230.80"/>
    </edge>
    <edge id=":C0_9" function="internal">
        <lane id=":C0_9_0" index="0" speed="3.65" length="3.23" shape="2331.00,230.80 2330.60,230.00 2331.00,229.20 2332.20,228.40"/>
    </edge>
    <edge id=":C0_6" function="internal">
        <lane id=":C0_6_0" index="0" speed="60.00" length="14.40" shape="2317.80,228.40 2332.20,228.40"/>
    </edge>
    <edge id=":C0_7" function="internal">
        <lane id=":C0_7_0" index="0" speed="8.00" length="4.07" shape="2317.80,228.40 2321.65,228.95 2321.80,229.04"/>
    </edge>
    <edge id=":C0_8" function="internal">
        <lane id=":C0_8_0" index="0" speed="3.65" length="1.44" shape="2317.80,228.40 2319.00,229.20"/>
    </edge>
    <edge id=":C0_10" function="internal">
        <lane id=":C0_10_0" index="0" speed="8.00" length="10.13" shape="2321.80,229.04 2324.40,230.60 2326.05,233.35 2326.60,237.20"/>
    </edge>
    <edge id=":C0_11" function="internal">
        <lane id=":C0_11_0" index="0" speed="3.65" length="3.23" shape="2319.00,229.20 2319.40,230.00 2319.00,230.80 2317.80,231.60"/>
    </edge>
    <edge id=":C1_0" function="internal">
        <lane id=":C1_0_0" index="0" speed="6.51" length="9.03" shape="2323.40,837.20 2323.05,834.75 2322.00,833.00 2320.25,831.95 2317.80,831.60"/>
    </edge>
    <edge id=":C1_1" function="internal">
        <lane id=":C1_1_0" index="0" speed="60.00" length="14.40" shape="2323.40,837.20 2323.40,822.80"/>
    </edge>
    <edge id=":C1_2" function="internal">
        <lane id=":C1_2_0" index="0" speed="8.00" length="4.07" shape="2323.40,837.20 2323.95,833.35 2324.04,833.20"/>
    </edge>
    <edge id=":C1_3" function="internal">
        <lane id=":C1_3_0" index="0" speed="3.65" length="1.44" shape="2323.40,837.20 2324.20,836.00"/>
    </edge>
    <edge id=":C1_16" function="internal">
        <lane id=":C1_16_0" index="0" speed="8.00" length="10.13" shape="2324.04,833.20 2325.60,830.60 2328.35,828.95 2332.20,828.40"/>
    </edge>
    <edge id=":C1_17" function="internal">
        <lane id=":C1_17_0" index="0" speed="3.65" length="3.23" shape="2324.20,836.00 2325.00,835.60 2325.80,836.00 2326.60,837.20"/>
    </edge>
    <edge id=":C1_4" function="internal">
        <lane id=":C1_4_0" index="0" speed="6.51" length="9.03" shape="2332.20,831.60 2329.75,831.95 2328.00,833.00 2326.95,834.75 2326.60,837.20"/>
    </edge>
    <edge id=":C1_5" function="internal">
        <lane id=":C1_5_0" index="0" speed="60.00" length="14.40" shape="2332.20,831.60 2317.80,831.60"/>
    </edge>
    <edge id=":C1_6" function="internal">
        <lane id=":C1_6_0" index="0" speed="8.00" length="14.19" shape="2332.20,831.60 2328.35,831.05 2325.60,829.40 2323.95,826.65 2323.40,822.80"/>
    </edge>
    <edge id=":C1_7" function="internal">
        <lane id=":C1_7_0" index="0" speed="3.65" length="4.67" shape="2332.20,831.60 2331.00,830.80 2330.60,830.00 2331.00,829.20 2332.20,828.40"/>
    </edge>
    <edge id=":C1_8" function="internal">
        <lane id=":C1_8_0" index="0" speed="6.51" length="9.03" shape="2326.60,822.80 2326.95,825.25 2328.00,827.00 2329.75,828.05 2332.20,828.40"/>
    </edge>
    <edge id=":C1_9" function="internal">
        <lane id=":C1_9_0" index="0" speed="60.00" length="14.40" shape="2326.60,822.80 2326.60,837.20"/>
    </edge>
    <edge id=":C1_10" function="internal">
        <lane id=":C1_10_0" index="0" speed="8.00" length="4.07" shape="2326.60,822.80 2326.05,826.65 2325.96,826.80"/>
    </edge>
    <edge id=":C1_11" function="internal">
        <lane id=":C1_11_0" index="0" speed="3.65" length="1.44" shape="2326.60,822.80 2325.80,824.00"/>
    </edge>
    <edge id=":C1_18" function="internal">
        <lane id=":C1_18_0" index="0" speed="8.00" length="10.13" shape="2325.96,826.80 2324.40,829.40 2321.65,831.05 2317.80,831.60"/>
    </edge>
    <edge id=":C1_19" function="internal">
        <lane id=":C1_19_0" index="0" speed="3.65" length="3.23" shape="2325.80,824.00 2325.00,824.40 2324.20,824.00 2323.40,822.80"/>
    </edge>
    <edge id=":C1_12" function="internal">
        <lane id=":C1_12_0" index="0" speed="6.51" length="9.03" shape="2317.80,828.40 2320.25,828.05 2322.00,827.00 2323.05,825.25 2323.40,822.80"/>
    </edge>
    <edge id=":C1_13" function="internal">
        <lane id=":C1_13_0" index="0" speed="60.00" length="14.40" shape="2317.80,828.40 2332.20,828.40"/>
    </edge>
    <edge id=":C1_14" function="internal">
        <lane id=":C1_14_0" index="0" speed="8.00" length="14.19" shape="2317.80,828.40 2321.65,828.95 2324.40,830.60 2326.05,833.35 2326.60,837.20"/>
    </edge>
    <edge id=":C1_15" function="internal">
        <lane id=":C1_15_0" index="0" speed="3.65" length="4.67" shape="2317.80,828.40 2319.00,829.20 2319.40,830.00 2319.00,830.80 2317.80,831.60"/>
    </edge>
    <edge id=":C2_0" function="internal">
        <lane id=":C2_0_0" index="0" speed="60.00" length="14.40" shape="2332.20,1431.60 2317.80,1431.60"/>
    </edge>
    <edge id=":C2_1" function="internal">
        <lane id=":C2_1_0" index="0" speed="8.00" length="4.07" shape="2332.20,1431.60 2328.35,1431.05 2328.20,1430.96"/>
    </edge>
    <edge id=":C2_2" function="internal">
        <lane id=":C2_2_0" index="0" speed="3.65" length="1.44" shape="2332.20,1431.60 2331.00,1430.80"/>
    </edge>
    <edge id=":C2_9" function="internal">
        <lane id=":C2_9_0" index="0" speed="8.00" length="10.13" shape="2328.20,1430.96 2325.60,1429.40 2323.95,1426.65 2323.40,1422.80"/>
    </edge>
    <edge id=":C2_10" function="internal">
        <lane id=":C2_10_0" index="0" speed="3.65" length="3.23" shape="2331.00,1430.80 2330.60,1430.00 2331.00,1429.20 2332.20,1428.40"/>
    </edge>
    <edge id=":C2_3" function="internal">
        <lane id=":C2_3_0" index="0" speed="6.51" length="9.03" shape="2326.60,1422.80 2326.95,1425.25 2328.00,1427.00 2329.75,1428.05 2332.20,1428.40"/>
    </edge>
    <edge id=":C2_4" function="internal">
        <lane id=":C2_4_0" index="0" speed="8.00" length="14.19" shape="2326.60,1422.80 2326.05,1426.65 2324.40,1429.40 2321.65,1431.05 2317.80,1431.60"/>
    </edge>
    <edge id=":C2_5" function="internal">
        <lane id=":C2_5_0" index="0" speed="3.65" length="4.67" shape="2326.60,1422.80 2325.80,1424.00 2325.00,1424.40 2324.20,1424.00 2323.40,1422.80"/>
    </edge>
    <edge id=":C2_6" function="internal">
        <lane id=":C2_6_0" index="0" speed="6.51" length="9.03" shape="2317.80,1428.40 2320.25,1428.05 2322.00,1427.00 2323.05,1425.25 2323.40,1422.80"/>
    </edge>
    <edge id=":C2_7" function="internal">
        <lane id=":C2_7_0" index="0" speed="60.00" length="14.40" shape="2317.80,1428.40 2332.20,1428.40"/>
    </edge>
    <edge id=":C2_8" function="internal">
        <lane id=":C2_8_0" index="0" speed="3.65" length="1.44" shape="2317.80,1428.40 2319.00,1429.20"/>
    </edge>
    <edge id=":C2_11" function="internal">
        <lane id=":C2_11_0" index="0" speed="3.65" length="3.23" shape="2319.00,1429.20 2319.40,1430.00 2319.00,1430.80 2317.80,1431.60"/>
    </edge>
    <edge id=":D0_0" function="internal">
        <lane id=":D0_0_0" index="0" speed="3.90" length="2.58" shape="3398.40,233.20 3398.30,232.50 3398.00,232.00 3397.50,231.70 3396.80,231.60"/>
    </edge>
    <edge id=":D0_1" function="internal">
        <lane id=":D0_1_0" index="0" speed="6.08" length="7.74" shape="3396.80,228.40 3398.90,228.70 3400.40,229.60 3401.30,231.10 3401.60,233.20"/>
    </edge>
    <edge id=":D1_0" function="internal">
        <lane id=":D1_0_0" index="0" speed="6.51" length="9.03" shape="3398.40,837.20 3398.05,834.75 3397.00,833.00 3395.25,831.95 3392.80,831.60"/>
    </edge>
    <edge id=":D1_1" function="internal">
        <lane id=":D1_1_0" index="0" speed="60.00" length="14.40" shape="3398.40,837.20 3398.40,822.80"/>
    </edge>
    <edge id=":D1_2" function="internal">
        <lane id=":D1_2_0" index="0" speed="3.65" length="1.44" shape="3398.40,837.20 3399.20,836.00"/>
    </edge>
    <edge id=":D1_9" function="internal">
        <lane id=":D1_9_0" index="0" speed="3.65" length="3.23" shape="3399.20,836.00 3400.00,835.60 3400.80,836.00 3401.60,837.20"/>
    </edge>
    <edge id=":D1_3" function="internal">
        <lane id=":D1_3_0" index="0" speed="60.00" length="14.40" shape="3401.60,822.80 3401.60,837.20"/>
    </edge>
    <edge id=":D1_4" function="internal">
        <lane id=":D1_4_0" index="0" speed="8.00" length="4.07" shape="3401.60,822.80 3401.05,826.65 3400.96,826.80"/>
    </edge>
    <edge id=":D1_5" function="internal">
        <lane id=":D1_5_0" index="0" speed="3.65" length="1.44" shape="3401.60,822.80 3400.80,824.00"/>
    </edge>
    <edge id=":D1_10" function="internal">
        <lane id=":D1_10_0" index="0" speed="8.00" length="10.13" shape="3400.96,826.80 3399.40,829.40 3396.65,831.05 3392.80,831.60"/>
    </edge>
    <edge id=":D1_11" function="internal">
        <lane id=":D1_11_0" index="0" speed="3.65" length="3.23" shape="3400.80,824.00 3400.00,824.40 3399.20,824.00 3398.40,822.80"/>
    </edge>
    <edge id=":D1_6" function="internal">
        <lane id=":D1_6_0" index="0" speed="6.51" length="9.03" shape="3392.80,828.40 3395.25,828.05 3397.00,827.00 3398.05,825.25 3398.40,822.80"/>
    </edge>
    <edge id=":D1_7" function="internal">
        <lane id=":D1_7_0" index="0" speed="8.00" length="14.19" shape="3392.80,828.40 3396.65,828.95 3399.40,830.60 3401.05,833.35 3401.60,837.20"/>
    </edge>
    <edge id=":D1_8" function="internal">
        <lane id=":D1_8_0" index="0" speed="3.65" length="4.67" shape="3392.80,828.40 3394.00,829.20 3394.40,830.00 3394.00,830.80 3392.80,831.60"/>
    </edge>
    <edge id=":D2_0" function="internal">
        <lane id=":D2_0_0" index="0" speed="6.08" length="7.74" shape="3401.60,1426.80 3401.30,1428.90 3400.40,1430.40 3398.90,1431.30 3396.80,1431.60"/>
    </edge>
    <edge id=":D2_1" function="internal">
        <lane id=":D2_1_0" index="0" speed="3.90" length="2.58" shape="3396.80,1428.40 3397.50,1428.30 3398.00,1428.00 3398.30,1427.50 3398.40,1426.80"/>
    </edge>

    <edge id="A0A1" from="A0" to="A1" priority="-1">
        <lane id="A0A1_0" index="0" speed="60.00" length="589.60" shape="176.60,233.20 176.60,822.80"/>
    </edge>
    <edge id="A0B0" from="A0" to="B0" priority="-1">
        <lane id="A0B0_0" index="0" speed="60.00" length="1064.60" shape="178.20,228.40 1242.80,228.40"/>
    </edge>
    <edge id="A1A0" from="A1" to="A0" priority="-1">
        <lane id="A1A0_0" index="0" speed="60.00" length="589.60" shape="173.40,822.80 173.40,233.20"/>
    </edge>
    <edge id="A1A2" from="A1" to="A2" priority="-1">
        <lane id="A1A2_0" index="0" speed="60.00" length="589.60" shape="176.60,837.20 176.60,1426.80"/>
    </edge>
    <edge id="A1B1" from="A1" to="B1" priority="-1">
        <lane id="A1B1_0" index="0" speed="60.00" length="1060.60" shape="182.20,828.40 1242.80,828.40"/>
    </edge>
    <edge id="A2A1" from="A2" to="A1" priority="-1">
        <lane id="A2A1_0" index="0" speed="60.00" length="589.60" shape="173.40,1426.80 173.40,837.20"/>
    </edge>
    <edge id="A2B2" from="A2" to="B2" priority="-1">
        <lane id="A2B2_0" index="0" speed="60.00" length="1064.60" shape="178.20,1428.40 1242.80,1428.40"/>
    </edge>
    <edge id="B0A0" from="B0" to="A0" priority="-1">
        <lane id="B0A0_0" index="0" speed="60.00" length="1064.60" shape="1242.80,231.60 178.20,231.60"/>
    </edge>
    <edge id="B0B1" from="B0" to="B1" priority="-1">
        <lane id="B0B1_0" index="0" speed="60.00" length="585.60" shape="1251.60,237.20 1251.60,822.80"/>
    </edge>
    <edge id="B0C0" from="B0" to="C0" priority="-1">
        <lane id="B0C0_0" index="0" speed="60.00" length="1060.60" shape="1257.20,228.40 2317.80,228.40"/>
    </edge>
    <edge id="B1A1" from="B1" to="A1" priority="-1">
        <lane id="B1A1_0" index="0" speed="60.00" length="1060.60" shape="1242.80,831.60 182.20,831.60"/>
    </edge>
    <edge id="B1B0" from="B1" to="B0" priority="-1">
        <lane id="B1B0_0" index="0" speed="60.00" length="585.60" shape="1248.40,822.80 1248.40,237.20"/>
    </edge>
    <edge id="B1B2" from="B1" to="B2" priority="-1">
        <lane id="B1B2_0" index="0" speed="60.00" length="585.60" shape="1251.60,837.20 1251.60,1422.80"/>
    </edge>
    <edge id="B1C1" from="B1" to="C1" priority="-1">
        <lane id="B1C1_0" index="0" speed="60.00" length="1060.60" shape="1257.20,828.40 2317.80,828.40"/>
    </edge>
    <edge id="B2A2" from="B2" to="A2" priority="-1">
        <lane id="B2A2_0" index="0" speed="60.00" length="1064.60" shape="1242.80,1431.60 178.20,1431.60"/>
    </edge>
    <edge id="B2B1" from="B2" to="B1" priority="-1">
        <lane id="B2B1_0" index="0" speed="60.00" length="585.60" shape="1248.40,1422.80 1248.40,837.20"/>
    </edge>
    <edge id="B2C2" from="B2" to="C2" priority="-1">
        <lane id="B2C2_0" index="0" speed="60.00" length="1060.60" shape="1257.20,1428.40 2317.80,1428.40"/>
    </edge>
    <edge id="C0B0" from="C0" to="B0" priority="-1">
        <lane id="C0B0_0" index="0" speed="60.00" length="1060.60" shape="2317.80,231.60 1257.20,231.60"/>
    </edge>
    <edge id="C0C1" from="C0" to="C1" priority="-1">
        <lane id="C0C1_0" index="0" speed="60.00" length="585.60" shape="2326.60,237.20 2326.60,822.80"/>
    </edge>
    <edge id="C0D0" from="C0" to="D0" priority="-1">
        <lane id="C0D0_0" index="0" speed="60.00" length="1064.60" shape="2332.20,228.40 3396.80,228.40"/>
    </edge>
    <edge id="C1B1" from="C1" to="B1" priority="-1">
        <lane id="C1B1_0" index="0" speed="60.00" length="1060.60" shape="2317.80,831.60 1257.20,831.60"/>
    </edge>
    <edge id="C1C0" from="C1" to="C0" priority="-1">
        <lane id="C1C0_0" index="0" speed="60.00" length="585.60" shape="2323.40,822.80 2323.40,237.20"/>
    </edge>
    <edge id="C1C2" from="C1" to="C2" priority="-1">
        <lane id="C1C2_0" index="0" speed="60.00" length="585.60" shape="2326.60,837.20 2326.60,1422.80"/>
    </edge>
    <edge id="C1D1" from="C1" to="D1" priority="-1">
        <lane id="C1D1_0" index="0" speed="60.00" length="1060.60" shape="2332.20,828.40 3392.80,828.40"/>
    </edge>
    <edge id="C2B2" from="C2" to="B2" priority="-1">
        <lane id="C2B2_0" index="0" speed="60.00" length="1060.60" shape="2317.80,1431.60 1257.20,1431.60"/>
    </edge>
    <edge id="C2C1" from="C2" to="C1" priority="-1">
        <lane id="C2C1_0" index="0" speed="60.00" length="585.60" shape="2323.40,1422.80 2323.40,837.20"/>
    </edge>
    <edge id="C2D2" from="C2" to="D2" priority="-1">
        <lane id="C2D2_0" index="0" speed="60.00" length="1064.60" shape="2332.20,1428.40 3396.80,1428.40"/>
    </edge>
    <edge id="D0C0" from="D0" to="C0" priority="-1">
        <lane id="D0C0_0" index="0" speed="60.00" length="1064.60" shape="3396.80,231.60 2332.20,231.60"/>
    </edge>
    <edge id="D0D1" from="D0" to="D1" priority="-1">
        <lane id="D0D1_0" index="0" speed="60.00" length="589.60" shape="3401.60,233.20 3401.60,822.80"/>
    </edge>
    <edge id="D1C1" from="D1" to="C1" priority="-1">
        <lane id="D1C1_0" index="0" speed="60.00" length="1060.60" shape="3392.80,831.60 2332.20,831.60"/>
    </edge>
    <edge id="D1D0" from="D1" to="D0" priority="-1">
        <lane id="D1D0_0" index="0" speed="60.00" length="589.60" shape="3398.40,822.80 3398.40,233.20"/>
    </edge>
    <edge id="D1D2" from="D1" to="D2" priority="-1">
        <lane id="D1D2_0" index="0" speed="60.00" length="589.60" shape="3401.60,837.20 3401.60,1426.80"/>
    </edge>
    <edge id="D2C2" from="D2" to="C2" priority="-1">
        <lane id="D2C2_0" index="0" speed="60.00" length="1064.60" shape="3396.80,1431.60 2332.20,1431.60"/>
    </edge>
    <edge id="D2D1" from="D2" to="D1" priority="-1">
        <lane id="D2D1_0" index="0" speed="60.00" length="589.60" shape="3398.40,1426.80 3398.40,837.20"/>
    </edge>

    <junction id="A0" type="priority" x="175.00" y="230.00" incLanes="A1A0_0 B0A0_0" intLanes=":A0_0_0 :A0_1_0" shape="171.80,233.20 178.20,233.20 178.20,226.80 174.64,227.51 173.40,228.40 172.51,229.64 171.98,231.24">
        <request index="0" response="00" foes="00" cont="0"/>
        <request index="1" response="00" foes="00" cont="0"/>
    </junction>