<?xml version="1.0" encoding="UTF-8"?>

<!-- generated on 2025-11-16 00:48:48.333597 by Eclipse SUMO randomTrips.py UNKNOWN
<configuration>
    <net-file value="urban-scenario.net.xml"/>
    <output-trip-file value="urban-scenario.trips.xml"/>
    <route-file value="urban-scenario.rou.xml"/>
    <trip-attributes value="departLane=&quot;best&quot; departSpeed=&quot;random&quot; type=&quot;ue&quot;"/>
    <fringe-factor value="0.2"/>
    <min-distance value="150.0"/>
    <end value="250000.0"/>
    <period value="25000.0"/>
</configuration>
-->

<routes xmlns:xsi="http://www.w3.org/2001/XMLSchema-instance" xsi:noNamespaceSchemaLocation="http://sumo.dlr.de/xsd/routes_file.xsd">
    <trip id="0" depart="0.00" from="C1C0" to="A0A1" departLane="best" departSpeed="random" type="ue"/>
    <trip id="1" depart="25000.00" from="B0C0" to="B0A0" departLane="best" departSpeed="random" type="ue"/>
    <trip id="2" depart="50000.00" from="C2C1" to="C1D1" departLane="best" departSpeed="random" type="ue"/>
    <trip id="3" depart="75000.00" from="D1D0" to="A1A0" departLane="best" departSpeed="random" type="ue"/>
    <trip id="4" depart="100000.00" from="B2A2" to="A0B0" departLane="best" departSpeed="random" type="ue"/>
    <trip id="5" depart="125000.00" from="A0A1" to="A2B2" departLane="best" departSpeed="random" type="ue"/>
    <trip id="6" depart="150000.00" from="B0A0" to="C1B1" departLane="best" departSpeed="random" type="ue"/>
    <trip id="7" depart="175000.00" from="D0C0" to="A0A1" departLane="best" departSpeed="random" type="ue"/>
    <trip id="8" depart="200000.00" from="D0C0" to="C1D1" departLane="best" departSpeed="random" type="ue"/>
    <trip id="9" depart="225000.00" from="B1B0" to="A2A1" departLane="best" departSpeed="random" type="ue"/>
</routes>
